*SPEF "ieee 1481-1999"
*DESIGN "gcd"
*DATE "13:56:06 Thursday October 23, 2025"
*VENDOR "The OpenROAD Project"
*PROGRAM "OpenROAD"
*VERSION "24Q3-10021-gc8a6603b7f"
*DESIGN_FLOW "NAME_SCOPE LOCAL" "PIN_CAP NONE"
*DIVIDER /
*DELIMITER :
*BUS_DELIMITER []
*T_UNIT 1 NS
*C_UNIT 1 PF
*R_UNIT 1 OHM
*L_UNIT 1 HENRY

*NAME_MAP
*1 _000_
*2 _001_
*3 _002_
*4 _003_
*5 _004_
*6 _005_
*7 _006_
*8 _007_
*9 _008_
*10 _009_
*11 _010_
*12 _011_
*13 _012_
*14 _013_
*15 _014_
*16 _015_
*17 _016_
*18 _017_
*19 _018_
*20 _019_
*21 _020_
*22 _021_
*23 _022_
*24 _023_
*25 _024_
*26 _025_
*27 _026_
*28 _027_
*29 _028_
*30 _029_
*31 _030_
*32 _031_
*33 _032_
*34 _033_
*35 _034_
*36 _035_
*37 _036_
*38 net17
*39 net16
*40 net15
*41 _040_
*42 _041_
*43 _042_
*44 _043_
*45 _044_
*46 _045_
*47 _046_
*48 _047_
*49 _048_
*50 _049_
*51 _050_
*52 _051_
*53 _052_
*54 _053_
*55 _054_
*56 _055_
*57 _056_
*58 _057_
*59 _058_
*60 _059_
*61 _060_
*62 _061_
*63 _062_
*64 _063_
*65 net14
*66 _065_
*67 _066_
*68 net13
*69 _068_
*70 _069_
*71 _070_
*72 _071_
*73 _072_
*74 net12
*75 _074_
*76 _075_
*77 _076_
*78 _077_
*79 _078_
*80 _079_
*81 _080_
*82 _081_
*83 _082_
*84 _083_
*85 _084_
*86 _085_
*87 _086_
*88 _087_
*89 _088_
*90 _089_
*91 _090_
*92 _091_
*93 _092_
*94 _093_
*95 _094_
*96 _095_
*97 _096_
*98 _097_
*99 _098_
*100 _099_
*101 _100_
*102 _101_
*103 _102_
*104 _103_
*105 _104_
*106 _105_
*107 _106_
*108 _107_
*109 _108_
*110 net11
*111 _110_
*112 _111_
*113 _112_
*114 _113_
*115 _114_
*116 _115_
*117 _116_
*118 _117_
*119 _118_
*120 _119_
*121 _120_
*122 _121_
*123 _122_
*124 _123_
*125 _124_
*126 _125_
*127 _126_
*128 _127_
*129 _128_
*130 _129_
*131 _130_
*132 _131_
*133 _132_
*134 _133_
*135 _134_
*136 _135_
*137 _136_
*138 _137_
*139 _138_
*140 _139_
*141 _140_
*142 _141_
*143 _142_
*144 _143_
*145 _144_
*146 _145_
*147 _146_
*148 _147_
*149 _148_
*150 _149_
*151 _150_
*152 _151_
*153 _152_
*154 _153_
*155 _154_
*156 _155_
*157 _156_
*158 _157_
*159 _158_
*160 _159_
*161 _160_
*162 _161_
*163 _162_
*164 _163_
*165 _164_
*166 _165_
*167 _166_
*168 _167_
*169 _168_
*170 _169_
*171 _170_
*172 _171_
*173 _172_
*174 _173_
*175 _174_
*176 _175_
*177 _176_
*178 _177_
*179 _178_
*180 _179_
*181 _180_
*182 _181_
*183 _182_
*184 _183_
*185 _184_
*186 _185_
*187 _186_
*188 _187_
*189 _188_
*190 _189_
*191 _190_
*192 _191_
*193 _192_
*194 _193_
*195 _194_
*196 _195_
*197 _196_
*198 _197_
*199 _198_
*200 _199_
*201 _200_
*202 _201_
*203 _202_
*204 _203_
*205 _204_
*206 _205_
*207 _206_
*208 _207_
*209 _208_
*210 _209_
*211 _210_
*212 _211_
*213 _212_
*214 _213_
*215 _214_
*216 _215_
*217 _216_
*218 _217_
*219 _218_
*220 _219_
*221 _220_
*222 _221_
*223 _222_
*224 _223_
*225 _224_
*226 _225_
*227 _226_
*228 _227_
*229 _228_
*230 _229_
*231 _230_
*232 _231_
*233 _232_
*234 _233_
*235 _234_
*236 _235_
*237 _236_
*238 _237_
*239 _238_
*240 _239_
*241 _240_
*242 _241_
*243 _242_
*244 _243_
*245 _244_
*246 _245_
*247 _246_
*248 _247_
*249 _248_
*250 _249_
*251 _250_
*252 _251_
*253 _252_
*254 _253_
*255 _254_
*256 _255_
*257 _256_
*258 _257_
*259 _258_
*260 _259_
*261 _260_
*262 _261_
*263 _262_
*264 _263_
*265 _264_
*266 _265_
*267 _266_
*268 _267_
*269 _268_
*270 _269_
*271 _270_
*272 _271_
*273 _272_
*274 _273_
*275 _274_
*276 _275_
*277 _276_
*278 _277_
*279 _278_
*280 _279_
*281 _280_
*282 _281_
*283 _282_
*284 _283_
*285 _284_
*286 _285_
*287 _286_
*288 _287_
*289 _288_
*290 _289_
*291 _290_
*292 _291_
*293 _292_
*294 _293_
*295 _294_
*296 _295_
*297 _296_
*298 _297_
*299 _298_
*300 _299_
*301 _300_
*302 _301_
*303 _302_
*304 _303_
*305 _304_
*306 _305_
*307 net10
*308 _307_
*309 _308_
*310 net9
*311 _310_
*312 _311_
*313 net8
*314 _313_
*315 _314_
*316 net7
*317 _316_
*318 net6
*319 net5
*320 _319_
*321 _320_
*322 _321_
*323 _322_
*324 _323_
*325 _324_
*326 _325_
*327 _326_
*328 _327_
*329 _328_
*330 _329_
*331 _330_
*332 _331_
*333 _332_
*334 _333_
*335 _334_
*336 _335_
*337 _336_
*338 _337_
*339 _338_
*340 _339_
*341 _340_
*342 _341_
*343 _342_
*344 _343_
*345 _344_
*346 _345_
*347 _346_
*348 _347_
*349 _348_
*350 _349_
*351 _350_
*352 _351_
*353 _352_
*354 _353_
*355 _354_
*356 _355_
*357 _356_
*358 _357_
*359 _358_
*360 _359_
*361 _360_
*362 _361_
*363 _362_
*364 _363_
*365 _364_
*366 _365_
*367 _366_
*368 _367_
*369 _368_
*370 _369_
*371 _370_
*372 _371_
*373 _372_
*374 _373_
*375 _374_
*376 _375_
*377 _376_
*378 _377_
*379 _378_
*380 _379_
*381 _380_
*382 _381_
*383 _382_
*384 _383_
*385 _384_
*386 _385_
*387 _386_
*388 _387_
*389 _388_
*390 _389_
*391 _390_
*392 _391_
*393 _392_
*394 _393_
*395 _394_
*396 _395_
*397 _396_
*398 _397_
*399 _398_
*400 _399_
*401 _400_
*402 _401_
*403 _402_
*404 net4
*405 _404_
*406 _405_
*407 _406_
*408 net3
*409 _408_
*410 _409_
*411 _410_
*412 _411_
*413 net2
*414 _413_
*415 _414_
*416 _415_
*417 _416_
*418 _417_
*419 net1
*420 _419_
*421 _420_
*422 _421_
*423 _422_
*424 _423_
*425 _424_
*426 _425_
*427 _426_
*428 _427_
*429 _428_
*430 _429_
*431 _430_
*432 _431_
*433 _432_
*434 _433_
*435 _434_
*436 _435_
*437 _436_
*438 _437_
*439 _438_
*440 _439_
*441 _440_
*442 _441_
*443 _442_
*444 _443_
*445 _444_
*446 _445_
*447 _446_
*448 _447_
*449 _448_
*450 _449_
*451 _450_
*452 _451_
*453 _452_
*454 _453_
*455 _454_
*456 _455_
*457 _456_
*458 _457_
*459 _458_
*460 _459_
*461 _460_
*462 _461_
*463 _462_
*464 _463_
*465 _464_
*466 _465_
*467 _466_
*468 _467_
*469 _468_
*470 _469_
*471 _470_
*472 _471_
*473 _472_
*474 _473_
*475 _474_
*476 _475_
*477 _476_
*478 _477_
*479 _478_
*480 _479_
*481 _480_
*482 _481_
*483 _482_
*484 _483_
*485 _484_
*486 _485_
*487 clk
*488 ctrl\.state\.out\[1\]
*489 ctrl\.state\.out\[2\]
*490 dpath\.a_lt_b\$in0\[0\]
*491 dpath\.a_lt_b\$in0\[10\]
*492 dpath\.a_lt_b\$in0\[11\]
*493 dpath\.a_lt_b\$in0\[12\]
*494 dpath\.a_lt_b\$in0\[13\]
*495 dpath\.a_lt_b\$in0\[14\]
*496 dpath\.a_lt_b\$in0\[15\]
*497 dpath\.a_lt_b\$in0\[1\]
*498 dpath\.a_lt_b\$in0\[2\]
*499 dpath\.a_lt_b\$in0\[3\]
*500 dpath\.a_lt_b\$in0\[4\]
*501 dpath\.a_lt_b\$in0\[5\]
*502 dpath\.a_lt_b\$in0\[6\]
*503 dpath\.a_lt_b\$in0\[7\]
*504 dpath\.a_lt_b\$in0\[8\]
*505 dpath\.a_lt_b\$in0\[9\]
*506 dpath\.a_lt_b\$in1\[0\]
*507 dpath\.a_lt_b\$in1\[10\]
*508 dpath\.a_lt_b\$in1\[11\]
*509 dpath\.a_lt_b\$in1\[12\]
*510 dpath\.a_lt_b\$in1\[13\]
*511 dpath\.a_lt_b\$in1\[14\]
*512 dpath\.a_lt_b\$in1\[15\]
*513 dpath\.a_lt_b\$in1\[1\]
*514 dpath\.a_lt_b\$in1\[2\]
*515 dpath\.a_lt_b\$in1\[3\]
*516 dpath\.a_lt_b\$in1\[4\]
*517 dpath\.a_lt_b\$in1\[5\]
*518 dpath\.a_lt_b\$in1\[6\]
*519 dpath\.a_lt_b\$in1\[7\]
*520 dpath\.a_lt_b\$in1\[8\]
*521 dpath\.a_lt_b\$in1\[9\]
*522 req_msg[0]
*523 req_msg[10]
*524 req_msg[11]
*525 req_msg[12]
*526 req_msg[13]
*527 req_msg[14]
*528 req_msg[15]
*529 req_msg[16]
*530 req_msg[17]
*531 req_msg[18]
*532 req_msg[19]
*533 req_msg[1]
*534 req_msg[20]
*535 req_msg[21]
*536 req_msg[22]
*537 req_msg[23]
*538 req_msg[24]
*539 req_msg[25]
*540 req_msg[26]
*541 req_msg[27]
*542 req_msg[28]
*543 req_msg[29]
*544 req_msg[2]
*545 req_msg[30]
*546 req_msg[31]
*547 req_msg[3]
*548 req_msg[4]
*549 req_msg[5]
*550 req_msg[6]
*551 req_msg[7]
*552 req_msg[8]
*553 req_msg[9]
*554 net36
*555 req_val
*556 reset
*557 net37
*558 net38
*559 net39
*560 net40
*561 net41
*562 net42
*563 net43
*564 net44
*565 net45
*566 net46
*567 net47
*568 net48
*569 net49
*570 net50
*571 net51
*572 net52
*573 resp_rdy
*574 net53
*577 net18
*578 net19
*579 net20
*580 net21
*581 net22
*582 net23
*583 net24
*584 net25
*585 net26
*586 net27
*587 net28
*588 net29
*589 net30
*590 net31
*591 net32
*592 net33
*593 net34
*594 net35
*595 req_rdy
*596 resp_msg[0]
*597 resp_msg[10]
*598 resp_msg[11]
*599 resp_msg[12]
*600 resp_msg[13]
*601 resp_msg[14]
*602 resp_msg[15]
*603 resp_msg[1]
*604 resp_msg[2]
*605 resp_msg[3]
*606 resp_msg[4]
*607 resp_msg[5]
*608 resp_msg[6]
*609 resp_msg[7]
*610 resp_msg[8]
*611 resp_msg[9]
*612 resp_val
*613 clknet_2_0__leaf_clk
*614 clknet_0_clk
*615 net56
*616 net57
*617 clknet_2_1__leaf_clk
*618 clknet_2_2__leaf_clk
*619 clknet_2_3__leaf_clk
*620 net58
*621 net59
*622 net60
*623 net61
*624 net62
*625 net63
*626 net64
*627 net65
*628 net66
*629 net67
*630 net68
*631 net69
*632 net70
*633 net71
*634 net72
*635 net73
*636 net74
*637 net75
*638 net76
*639 net77
*640 net78
*641 net79
*642 net80
*643 net81
*644 net82
*645 net83
*646 net84
*647 net85
*648 net86
*649 net87
*650 net88
*651 net89
*652 net91
*653 net110
*654 net111
*656 net113
*657 net114
*658 net115
*659 net125
*660 net126
*661 net127
*662 net128
*663 net132
*664 net133
*665 net134
*666 net137
*667 net138
*668 net139
*669 net141
*670 net143
*671 _486_
*672 input17
*673 input16
*674 input15
*675 _490_
*676 _491_
*677 _492_
*678 _493_
*679 _494_
*680 _495_
*681 _496_
*682 _497_
*683 _498_
*684 _499_
*685 _500_
*686 _501_
*687 _502_
*688 _503_
*689 _504_
*690 _505_
*691 _506_
*692 _507_
*693 _508_
*694 _509_
*695 _510_
*696 _511_
*697 _512_
*698 _513_
*699 input14
*700 _515_
*701 _516_
*702 _517_
*703 input13
*704 _519_
*705 _520_
*706 _521_
*707 _522_
*708 _523_
*709 _524_
*710 _525_
*711 _526_
*712 _527_
*713 input12
*714 _529_
*715 _530_
*716 _531_
*717 _532_
*718 _533_
*719 _534_
*720 _535_
*721 _536_
*722 _537_
*723 _538_
*724 _539_
*725 _540_
*726 _541_
*727 _542_
*728 _543_
*729 _544_
*730 _545_
*731 _546_
*732 _547_
*733 _548_
*734 _549_
*735 _550_
*736 _551_
*737 _552_
*738 _553_
*739 _554_
*740 _555_
*741 _556_
*742 _557_
*743 _558_
*744 _559_
*745 _560_
*746 _561_
*747 _562_
*748 _563_
*749 _564_
*750 _565_
*751 _566_
*752 _567_
*753 input11
*754 _569_
*755 _570_
*756 _571_
*757 _572_
*758 _573_
*759 _574_
*760 _575_
*761 _576_
*762 _577_
*763 _578_
*764 _579_
*765 _580_
*766 _581_
*767 _582_
*768 _583_
*769 _584_
*770 _585_
*771 _586_
*772 _587_
*773 _588_
*774 _589_
*775 _590_
*776 _591_
*777 _592_
*778 _593_
*779 _594_
*780 _595_
*781 _596_
*782 _597_
*783 _598_
*784 _599_
*785 _600_
*786 _601_
*787 _602_
*788 _603_
*789 _604_
*790 _605_
*791 _606_
*792 _607_
*793 _608_
*794 _609_
*795 _610_
*796 _611_
*797 _612_
*798 _613_
*799 _614_
*800 _615_
*801 _616_
*802 _617_
*803 _618_
*804 _619_
*805 _620_
*806 _621_
*807 _622_
*808 _623_
*809 _624_
*810 _625_
*811 _626_
*812 _627_
*813 _628_
*814 _629_
*815 _630_
*816 _631_
*817 _632_
*818 _633_
*819 _634_
*820 _635_
*821 _636_
*822 _637_
*823 _638_
*824 _639_
*825 _640_
*826 _641_
*827 _642_
*828 _643_
*829 _644_
*830 _645_
*831 _646_
*832 _647_
*833 _648_
*834 _649_
*835 _650_
*836 _651_
*837 _652_
*838 _653_
*839 _654_
*840 _655_
*841 _656_
*842 _657_
*843 _658_
*844 _659_
*845 _660_
*846 _661_
*847 _662_
*848 _663_
*849 _664_
*850 _665_
*851 _666_
*852 _667_
*853 _668_
*854 _669_
*855 _670_
*856 _671_
*857 _672_
*858 _673_
*859 _674_
*860 _675_
*861 _676_
*862 _677_
*863 _678_
*864 _679_
*865 _680_
*866 _681_
*867 _682_
*868 _683_
*869 _684_
*870 _685_
*871 _686_
*872 _687_
*873 _688_
*874 _689_
*875 _690_
*876 _691_
*877 _692_
*878 _693_
*879 _694_
*880 _695_
*881 _696_
*882 _697_
*883 _698_
*884 _699_
*885 _700_
*886 _701_
*887 _702_
*888 _703_
*889 _704_
*890 _705_
*891 _706_
*892 _707_
*893 _708_
*894 _709_
*895 _710_
*896 _711_
*897 _712_
*898 _713_
*899 _714_
*900 _715_
*901 _716_
*902 _717_
*903 _718_
*904 _719_
*905 _720_
*906 _721_
*907 _722_
*908 _723_
*909 _724_
*910 _725_
*911 _726_
*912 _727_
*913 _728_
*914 _729_
*915 _730_
*916 _731_
*917 _732_
*918 _733_
*919 _734_
*920 _735_
*921 _736_
*922 _737_
*923 _738_
*924 _739_
*925 _740_
*926 _741_
*927 _742_
*928 _743_
*929 _744_
*930 _745_
*931 _746_
*932 _747_
*933 _748_
*934 _749_
*935 _750_
*936 _751_
*937 _752_
*938 _753_
*939 _754_
*940 _755_
*941 _756_
*942 _757_
*943 _758_
*944 _759_
*945 _760_
*946 _761_
*947 _762_
*948 _763_
*949 _764_
*950 _765_
*951 _766_
*952 _767_
*953 _768_
*954 _769_
*955 _770_
*956 _771_
*957 _772_
*958 _773_
*959 _774_
*960 _775_
*961 input10
*962 _777_
*963 _778_
*964 input9
*965 _780_
*966 _781_
*967 input8
*968 _783_
*969 _784_
*970 input7
*971 _786_
*972 input6
*973 input5
*974 _789_
*975 _790_
*976 _791_
*977 _792_
*978 _793_
*979 _794_
*980 _795_
*981 _796_
*982 _797_
*983 _798_
*984 _799_
*985 _800_
*986 _801_
*987 _802_
*988 _803_
*989 _804_
*990 _805_
*991 _806_
*992 _807_
*993 _808_
*994 _809_
*995 _810_
*996 _811_
*997 _812_
*998 _813_
*999 _814_
*1000 _815_
*1001 _816_
*1002 _817_
*1003 _818_
*1004 _819_
*1005 _820_
*1006 _821_
*1007 _822_
*1008 _823_
*1009 _824_
*1010 _825_
*1011 _826_
*1012 _827_
*1013 _828_
*1014 _829_
*1015 _830_
*1016 _831_
*1017 _832_
*1018 _833_
*1019 _834_
*1020 _835_
*1021 _836_
*1022 _837_
*1023 _838_
*1024 _839_
*1025 _840_
*1026 _841_
*1027 _842_
*1028 _843_
*1029 _844_
*1030 _845_
*1031 _846_
*1032 _847_
*1033 _848_
*1034 _849_
*1035 _850_
*1036 _851_
*1037 _852_
*1038 _853_
*1039 _854_
*1040 _855_
*1041 _856_
*1042 _857_
*1043 _858_
*1044 _859_
*1045 _860_
*1046 _861_
*1047 _862_
*1048 _863_
*1049 _864_
*1050 _865_
*1051 _866_
*1052 _867_
*1053 _868_
*1054 _869_
*1055 _870_
*1056 _871_
*1057 _872_
*1058 _873_
*1059 _874_
*1060 _875_
*1061 _876_
*1062 _877_
*1063 _878_
*1064 _879_
*1065 _880_
*1066 _881_
*1067 _882_
*1068 _883_
*1069 _884_
*1070 _885_
*1071 _886_
*1072 _887_
*1073 _888_
*1074 input4
*1075 _890_
*1076 _891_
*1077 _892_
*1078 input3
*1079 _894_
*1080 _895_
*1081 _896_
*1082 _897_
*1083 _898_
*1084 _899_
*1085 input2
*1086 _901_
*1087 _902_
*1088 _903_
*1089 _904_
*1090 _905_
*1091 _906_
*1092 _907_
*1093 input1
*1094 _909_
*1095 _910_
*1096 _911_
*1097 _912_
*1098 _913_
*1099 _914_
*1100 _915_
*1101 _916_
*1102 _917_
*1103 _918_
*1104 _919_
*1105 _920_
*1106 _921_
*1107 _922_
*1108 _923_
*1109 _924_
*1110 _925_
*1111 _926_
*1112 _927_
*1113 _928_
*1114 _929_
*1115 _930_
*1116 _931_
*1117 _932_
*1118 _933_
*1119 _934_
*1120 _935_
*1121 _936_
*1122 _937_
*1123 _938_
*1124 _939_
*1125 _940_
*1126 _941_
*1127 _942_
*1128 _943_
*1129 _944_
*1130 _945_
*1131 _946_
*1132 _947_
*1133 _948_
*1134 _949_
*1135 _950_
*1136 _951_
*1137 _952_
*1138 _953_
*1139 ctrl\.state\.out\[0\]\$_DFF_P_
*1140 ctrl\.state\.out\[1\]\$_DFF_P_
*1141 ctrl\.state\.out\[2\]\$_DFF_P_
*1142 dpath\.a_reg\.out\[0\]\$_DFFE_PP_
*1143 dpath\.a_reg\.out\[10\]\$_DFFE_PP_
*1144 dpath\.a_reg\.out\[11\]\$_DFFE_PP_
*1145 dpath\.a_reg\.out\[12\]\$_DFFE_PP_
*1146 dpath\.a_reg\.out\[13\]\$_DFFE_PP_
*1147 dpath\.a_reg\.out\[14\]\$_DFFE_PP_
*1148 dpath\.a_reg\.out\[15\]\$_DFFE_PP_
*1149 dpath\.a_reg\.out\[1\]\$_DFFE_PP_
*1150 dpath\.a_reg\.out\[2\]\$_DFFE_PP_
*1151 dpath\.a_reg\.out\[3\]\$_DFFE_PP_
*1152 dpath\.a_reg\.out\[4\]\$_DFFE_PP_
*1153 dpath\.a_reg\.out\[5\]\$_DFFE_PP_
*1154 dpath\.a_reg\.out\[6\]\$_DFFE_PP_
*1155 dpath\.a_reg\.out\[7\]\$_DFFE_PP_
*1156 dpath\.a_reg\.out\[8\]\$_DFFE_PP_
*1157 dpath\.a_reg\.out\[9\]\$_DFFE_PP_
*1158 dpath\.b_reg\.out\[0\]\$_DFFE_PP_
*1159 dpath\.b_reg\.out\[10\]\$_DFFE_PP_
*1160 dpath\.b_reg\.out\[11\]\$_DFFE_PP_
*1161 dpath\.b_reg\.out\[12\]\$_DFFE_PP_
*1162 dpath\.b_reg\.out\[13\]\$_DFFE_PP_
*1163 dpath\.b_reg\.out\[14\]\$_DFFE_PP_
*1164 dpath\.b_reg\.out\[15\]\$_DFFE_PP_
*1165 dpath\.b_reg\.out\[1\]\$_DFFE_PP_
*1166 dpath\.b_reg\.out\[2\]\$_DFFE_PP_
*1167 dpath\.b_reg\.out\[3\]\$_DFFE_PP_
*1168 dpath\.b_reg\.out\[4\]\$_DFFE_PP_
*1169 dpath\.b_reg\.out\[5\]\$_DFFE_PP_
*1170 dpath\.b_reg\.out\[6\]\$_DFFE_PP_
*1171 dpath\.b_reg\.out\[7\]\$_DFFE_PP_
*1172 dpath\.b_reg\.out\[8\]\$_DFFE_PP_
*1173 dpath\.b_reg\.out\[9\]\$_DFFE_PP_
*1174 PHY_EDGE_ROW_0_Right_0
*1175 PHY_EDGE_ROW_1_Right_1
*1176 PHY_EDGE_ROW_2_Right_2
*1177 PHY_EDGE_ROW_3_Right_3
*1178 PHY_EDGE_ROW_4_Right_4
*1179 PHY_EDGE_ROW_5_Right_5
*1180 PHY_EDGE_ROW_6_Right_6
*1181 PHY_EDGE_ROW_7_Right_7
*1182 PHY_EDGE_ROW_8_Right_8
*1183 PHY_EDGE_ROW_9_Right_9
*1184 PHY_EDGE_ROW_10_Right_10
*1185 PHY_EDGE_ROW_11_Right_11
*1186 PHY_EDGE_ROW_12_Right_12
*1187 PHY_EDGE_ROW_13_Right_13
*1188 PHY_EDGE_ROW_14_Right_14
*1189 PHY_EDGE_ROW_15_Right_15
*1190 PHY_EDGE_ROW_16_Right_16
*1191 PHY_EDGE_ROW_17_Right_17
*1192 PHY_EDGE_ROW_18_Right_18
*1193 PHY_EDGE_ROW_19_Right_19
*1194 PHY_EDGE_ROW_20_Right_20
*1195 PHY_EDGE_ROW_21_Right_21
*1196 PHY_EDGE_ROW_22_Right_22
*1197 PHY_EDGE_ROW_23_Right_23
*1198 PHY_EDGE_ROW_0_Left_24
*1199 PHY_EDGE_ROW_1_Left_25
*1200 PHY_EDGE_ROW_2_Left_26
*1201 PHY_EDGE_ROW_3_Left_27
*1202 PHY_EDGE_ROW_4_Left_28
*1203 PHY_EDGE_ROW_5_Left_29
*1204 PHY_EDGE_ROW_6_Left_30
*1205 PHY_EDGE_ROW_7_Left_31
*1206 PHY_EDGE_ROW_8_Left_32
*1207 PHY_EDGE_ROW_9_Left_33
*1208 PHY_EDGE_ROW_10_Left_34
*1209 PHY_EDGE_ROW_11_Left_35
*1210 PHY_EDGE_ROW_12_Left_36
*1211 PHY_EDGE_ROW_13_Left_37
*1212 PHY_EDGE_ROW_14_Left_38
*1213 PHY_EDGE_ROW_15_Left_39
*1214 PHY_EDGE_ROW_16_Left_40
*1215 PHY_EDGE_ROW_17_Left_41
*1216 PHY_EDGE_ROW_18_Left_42
*1217 PHY_EDGE_ROW_19_Left_43
*1218 PHY_EDGE_ROW_20_Left_44
*1219 PHY_EDGE_ROW_21_Left_45
*1220 PHY_EDGE_ROW_22_Left_46
*1221 PHY_EDGE_ROW_23_Left_47
*1222 input18
*1223 input19
*1224 input20
*1225 input21
*1226 input22
*1227 input23
*1228 input24
*1229 input25
*1230 input26
*1231 input27
*1232 input28
*1233 input29
*1234 input30
*1235 input31
*1236 input32
*1237 input33
*1238 input34
*1239 input35
*1240 output36
*1241 output37
*1242 output38
*1243 output39
*1244 output40
*1245 output41
*1246 output42
*1247 output43
*1248 output44
*1249 output45
*1250 output46
*1251 output47
*1252 output48
*1253 output49
*1254 output50
*1255 output51
*1256 output52
*1257 output53
*1258 clkbuf_2_0__f_clk
*1259 clkbuf_0_clk
*1260 place56
*1261 place57
*1262 clkbuf_2_1__f_clk
*1263 clkbuf_2_2__f_clk
*1264 clkbuf_2_3__f_clk
*1265 clkload0
*1266 clkload1
*1267 clkload2
*1268 rebuffer58
*1269 rebuffer59
*1270 rebuffer60
*1271 rebuffer61
*1272 rebuffer62
*1273 rebuffer63
*1274 rebuffer64
*1275 rebuffer65
*1276 rebuffer66
*1277 rebuffer67
*1278 rebuffer68
*1279 rebuffer69
*1280 rebuffer70
*1281 rebuffer71
*1282 rebuffer72
*1283 rebuffer73
*1284 rebuffer74
*1285 rebuffer75
*1286 rebuffer76
*1287 rebuffer77
*1288 rebuffer78
*1289 rebuffer79
*1290 rebuffer80
*1291 rebuffer81
*1292 rebuffer82
*1293 rebuffer83
*1294 rebuffer84
*1295 rebuffer85
*1296 rebuffer86
*1297 rebuffer87
*1298 rebuffer88
*1299 rebuffer89
*1300 rebuffer91
*1301 rebuffer110
*1302 rebuffer111
*1303 FILLER_0_1
*1304 rebuffer113
*1305 rebuffer114
*1306 rebuffer115
*1307 rebuffer125
*1308 rebuffer126
*1309 rebuffer127
*1310 rebuffer128
*1311 rebuffer132
*1312 rebuffer133
*1313 rebuffer134
*1314 rebuffer137
*1315 clone138
*1316 rebuffer139
*1317 clone141
*1318 rebuffer143
*1319 FILLER_0_33
*1320 FILLER_0_37
*1321 FILLER_0_39
*1322 FILLER_0_43
*1323 FILLER_0_58
*1324 FILLER_0_63
*1325 FILLER_0_67
*1326 FILLER_0_77
*1327 FILLER_0_79
*1328 FILLER_0_93
*1329 FILLER_0_105
*1330 FILLER_0_107
*1331 FILLER_0_114
*1332 FILLER_0_125
*1333 FILLER_0_142
*1334 FILLER_0_174
*1335 FILLER_1_1
*1336 FILLER_1_17
*1337 FILLER_1_25
*1338 FILLER_1_29
*1339 FILLER_1_38
*1340 FILLER_1_62
*1341 FILLER_1_98
*1342 FILLER_1_123
*1343 FILLER_1_128
*1344 FILLER_1_149
*1345 FILLER_1_165
*1346 FILLER_1_173
*1347 FILLER_1_177
*1348 FILLER_2_1
*1349 FILLER_2_17
*1350 FILLER_2_42
*1351 FILLER_2_50
*1352 FILLER_2_62
*1353 FILLER_2_70
*1354 FILLER_2_76
*1355 FILLER_2_122
*1356 FILLER_2_158
*1357 FILLER_2_174
*1358 FILLER_3_1
*1359 FILLER_3_9
*1360 FILLER_3_21
*1361 FILLER_3_29
*1362 FILLER_3_31
*1363 FILLER_3_45
*1364 FILLER_3_47
*1365 FILLER_3_68
*1366 FILLER_3_91
*1367 FILLER_3_95
*1368 FILLER_3_136
*1369 FILLER_3_159
*1370 FILLER_3_175
*1371 FILLER_3_177
*1372 FILLER_4_1
*1373 FILLER_4_5
*1374 FILLER_4_7
*1375 FILLER_4_25
*1376 FILLER_4_61
*1377 FILLER_4_80
*1378 FILLER_4_97
*1379 FILLER_4_110
*1380 FILLER_4_128
*1381 FILLER_4_159
*1382 FILLER_4_175
*1383 FILLER_4_177
*1384 FILLER_5_1
*1385 FILLER_5_9
*1386 FILLER_5_13
*1387 FILLER_5_18
*1388 FILLER_5_22
*1389 FILLER_5_37
*1390 FILLER_5_61
*1391 FILLER_5_85
*1392 FILLER_5_103
*1393 FILLER_5_119
*1394 FILLER_5_137
*1395 FILLER_5_155
*1396 FILLER_5_171
*1397 FILLER_5_175
*1398 FILLER_5_177
*1399 FILLER_6_1
*1400 FILLER_6_5
*1401 FILLER_6_9
*1402 FILLER_6_11
*1403 FILLER_6_26
*1404 FILLER_6_30
*1405 FILLER_6_41
*1406 FILLER_6_91
*1407 FILLER_6_168
*1408 FILLER_6_176
*1409 FILLER_7_1
*1410 FILLER_7_23
*1411 FILLER_7_45
*1412 FILLER_7_98
*1413 FILLER_7_104
*1414 FILLER_7_172
*1415 FILLER_7_176
*1416 FILLER_8_1
*1417 FILLER_8_9
*1418 FILLER_8_13
*1419 FILLER_8_38
*1420 FILLER_8_137
*1421 FILLER_8_170
*1422 FILLER_9_1
*1423 FILLER_9_12
*1424 FILLER_9_21
*1425 FILLER_9_35
*1426 FILLER_9_43
*1427 FILLER_9_48
*1428 FILLER_9_50
*1429 FILLER_9_80
*1430 FILLER_9_90
*1431 FILLER_9_111
*1432 FILLER_9_142
*1433 FILLER_10_1
*1434 FILLER_10_6
*1435 FILLER_10_18
*1436 FILLER_10_22
*1437 FILLER_10_25
*1438 FILLER_10_33
*1439 FILLER_10_37
*1440 FILLER_10_43
*1441 FILLER_10_98
*1442 FILLER_10_127
*1443 FILLER_10_170
*1444 FILLER_11_1
*1445 FILLER_11_9
*1446 FILLER_11_20
*1447 FILLER_11_38
*1448 FILLER_11_49
*1449 FILLER_11_57
*1450 FILLER_11_62
*1451 FILLER_11_80
*1452 FILLER_11_93
*1453 FILLER_11_168
*1454 FILLER_11_176
*1455 FILLER_12_1
*1456 FILLER_12_43
*1457 FILLER_12_51
*1458 FILLER_12_55
*1459 FILLER_12_65
*1460 FILLER_12_171
*1461 FILLER_12_175
*1462 FILLER_12_177
*1463 FILLER_13_4
*1464 FILLER_13_19
*1465 FILLER_13_29
*1466 FILLER_13_33
*1467 FILLER_13_35
*1468 FILLER_13_63
*1469 FILLER_13_81
*1470 FILLER_13_85
*1471 FILLER_13_91
*1472 FILLER_13_118
*1473 FILLER_13_141
*1474 FILLER_13_169
*1475 FILLER_13_177
*1476 FILLER_14_1
*1477 FILLER_14_60
*1478 FILLER_14_64
*1479 FILLER_14_84
*1480 FILLER_14_92
*1481 FILLER_14_96
*1482 FILLER_14_98
*1483 FILLER_14_127
*1484 FILLER_14_133
*1485 FILLER_14_142
*1486 FILLER_14_161
*1487 FILLER_14_177
*1488 FILLER_15_1
*1489 FILLER_15_10
*1490 FILLER_15_21
*1491 FILLER_15_23
*1492 FILLER_15_41
*1493 FILLER_15_49
*1494 FILLER_15_51
*1495 FILLER_15_55
*1496 FILLER_15_57
*1497 FILLER_15_68
*1498 FILLER_15_73
*1499 FILLER_15_80
*1500 FILLER_15_165
*1501 FILLER_15_170
*1502 FILLER_16_10
*1503 FILLER_16_36
*1504 FILLER_16_46
*1505 FILLER_16_51
*1506 FILLER_16_78
*1507 FILLER_16_85
*1508 FILLER_16_87
*1509 FILLER_16_92
*1510 FILLER_16_104
*1511 FILLER_16_172
*1512 FILLER_16_176
*1513 FILLER_17_1
*1514 FILLER_17_5
*1515 FILLER_17_20
*1516 FILLER_17_36
*1517 FILLER_17_65
*1518 FILLER_17_67
*1519 FILLER_17_72
*1520 FILLER_17_83
*1521 FILLER_17_88
*1522 FILLER_17_105
*1523 FILLER_17_120
*1524 FILLER_17_171
*1525 FILLER_18_1
*1526 FILLER_18_6
*1527 FILLER_18_8
*1528 FILLER_18_40
*1529 FILLER_18_44
*1530 FILLER_18_49
*1531 FILLER_18_51
*1532 FILLER_18_55
*1533 FILLER_18_72
*1534 FILLER_18_96
*1535 FILLER_18_110
*1536 FILLER_18_168
*1537 FILLER_18_176
*1538 FILLER_19_18
*1539 FILLER_19_26
*1540 FILLER_19_30
*1541 FILLER_19_48
*1542 FILLER_19_79
*1543 FILLER_19_85
*1544 FILLER_19_93
*1545 FILLER_19_159
*1546 FILLER_19_175
*1547 FILLER_19_177
*1548 FILLER_20_1
*1549 FILLER_20_9
*1550 FILLER_20_11
*1551 FILLER_20_31
*1552 FILLER_20_35
*1553 FILLER_20_37
*1554 FILLER_20_41
*1555 FILLER_20_45
*1556 FILLER_20_84
*1557 FILLER_20_95
*1558 FILLER_20_110
*1559 FILLER_20_136
*1560 FILLER_20_151
*1561 FILLER_20_166
*1562 FILLER_20_174
*1563 FILLER_21_1
*1564 FILLER_21_33
*1565 FILLER_21_49
*1566 FILLER_21_76
*1567 FILLER_21_110
*1568 FILLER_21_118
*1569 FILLER_21_159
*1570 FILLER_21_175
*1571 FILLER_21_177
*1572 FILLER_22_1
*1573 FILLER_22_33
*1574 FILLER_22_49
*1575 FILLER_22_53
*1576 FILLER_22_75
*1577 FILLER_22_79
*1578 FILLER_22_111
*1579 FILLER_22_138
*1580 FILLER_22_157
*1581 FILLER_22_173
*1582 FILLER_22_177
*1583 FILLER_23_1
*1584 FILLER_23_33
*1585 FILLER_23_49
*1586 FILLER_23_63
*1587 FILLER_23_67
*1588 FILLER_23_71
*1589 FILLER_23_75
*1590 FILLER_23_79
*1591 FILLER_23_81
*1592 FILLER_23_85
*1593 FILLER_23_87
*1594 FILLER_23_91
*1595 FILLER_23_101
*1596 FILLER_23_113
*1597 FILLER_23_121
*1598 FILLER_23_123
*1599 FILLER_23_127
*1600 FILLER_23_131
*1601 FILLER_23_142
*1602 FILLER_23_146

*PORTS
clk I
req_msg[0] I
req_msg[10] I
req_msg[11] I
req_msg[12] I
req_msg[13] I
req_msg[14] I
req_msg[15] I
req_msg[16] I
req_msg[17] I
req_msg[18] I
req_msg[19] I
req_msg[1] I
req_msg[20] I
req_msg[21] I
req_msg[22] I
req_msg[23] I
req_msg[24] I
req_msg[25] I
req_msg[26] I
req_msg[27] I
req_msg[28] I
req_msg[29] I
req_msg[2] I
req_msg[30] I
req_msg[31] I
req_msg[3] I
req_msg[4] I
req_msg[5] I
req_msg[6] I
req_msg[7] I
req_msg[8] I
req_msg[9] I
req_rdy O
req_val I
reset I
resp_msg[0] O
resp_msg[10] O
resp_msg[11] O
resp_msg[12] O
resp_msg[13] O
resp_msg[14] O
resp_msg[15] O
resp_msg[1] O
resp_msg[2] O
resp_msg[3] O
resp_msg[4] O
resp_msg[5] O
resp_msg[6] O
resp_msg[7] O
resp_msg[8] O
resp_msg[9] O
resp_rdy I
resp_val O

*D_NET *1 0.000638821
*CONN
*I *1139:D I *D DFF_X2
*I *708:ZN O *D NAND3_X1
*CAP
1 *1139:D 0.000244171
2 *708:ZN 0.000244171
3 *1139:D *700:A1 1.14871e-05
4 *1139:D *700:A2 4.24402e-05
5 *1139:D *701:A 9.43255e-06
6 *1139:D *702:A 2.52965e-06
7 *1139:D *704:A1 0
8 *1139:D *704:A2 5.90251e-06
9 *1139:D *704:A3 0
10 *1139:D *707:A1 3.0141e-06
11 *1139:D *708:A3 7.29164e-07
12 *1139:D *1139:CK 2.07669e-05
13 *1139:D *1140:D 0
14 *1139:D *1141:D 2.83077e-06
15 *1139:D *1141:CK 0
16 *1139:D *37:18 1.64202e-05
17 *1139:D *37:27 1.51927e-05
18 *1139:D *66:14 1.17632e-05
19 *1139:D *69:10 6.20008e-07
20 *1139:D *488:14 7.34989e-06
21 *1139:D *616:12 0
22 *1139:D *616:22 0
*RES
1 *708:ZN *1139:D 47.1786 
*END

*D_NET *2 0.000177064
*CONN
*I *1140:D I *D DFF_X1
*I *710:ZN O *D OAI21_X1
*CAP
1 *1140:D 8.85319e-05
2 *710:ZN 8.85319e-05
3 *1140:D *708:A3 0
4 *1140:D *488:14 0
5 *1139:D *1140:D 0
*RES
1 *710:ZN *1140:D 19.3929 
*END

*D_NET *3 0.000115731
*CONN
*I *1141:D I *D DFF_X1
*I *701:ZN O *D OAI21_X1
*CAP
1 *1141:D 4.59746e-05
2 *701:ZN 4.59746e-05
3 *1141:D *701:B1 1.88334e-06
4 *1141:D *996:B2 1.62366e-05
5 *1141:D *1140:CK 0
6 *1141:D *1141:CK 2.83077e-06
7 *1141:D *618:105 0
8 *1139:D *1141:D 2.83077e-06
*RES
1 *701:ZN *1141:D 25.5714 
*END

*D_NET *4 0.00621638
*CONN
*I *1012:A3 I *D NAND3_X1
*I *1005:A3 I *D NAND3_X1
*I *998:A3 I *D NAND3_X1
*I *1073:A2 I *D NAND2_X4
*I *984:A3 I *D NAND3_X1
*I *963:A3 I *D NAND4_X4
*I *1317:A3 I *D NAND4_X2
*I *991:A3 I *D NAND3_X1
*I *704:A3 I *D AND3_X1
*I *1139:QN O *D DFF_X2
*CAP
1 *1012:A3 6.21606e-05
2 *1005:A3 1.45462e-05
3 *998:A3 0
4 *1073:A2 3.89634e-05
5 *984:A3 6.8833e-05
6 *963:A3 1.43067e-05
7 *1317:A3 0.000286432
8 *991:A3 0
9 *704:A3 0.000212908
10 *1139:QN 1.72617e-05
11 *4:131 0.000263668
12 *4:78 0.000546076
13 *4:64 0.000351567
14 *4:60 0.000217333
15 *4:50 0.000155978
16 *4:46 0.000277491
17 *4:35 0.000312782
18 *4:8 0.000467428
19 *704:A3 *675:A1 9.57492e-07
20 *704:A3 *702:A 0
21 *704:A3 *704:A2 2.39679e-06
22 *704:A3 *966:A1 1.25189e-05
23 *704:A3 *1139:CK 0
24 *704:A3 *1141:CK 2.74019e-05
25 *704:A3 *1261:A 3.32067e-05
26 *704:A3 *554:6 0.000100984
27 *704:A3 *574:8 2.94455e-05
28 *704:A3 *616:10 2.83168e-05
29 *704:A3 *616:49 1.19839e-05
30 *963:A3 *820:A1 0
31 *963:A3 *666:12 3.41915e-05
32 *984:A3 *882:A1 6.18989e-05
33 *984:A3 *984:A1 1.68643e-06
34 *984:A3 *984:A2 2.39679e-06
35 *984:A3 *987:A1 8.83478e-05
36 *984:A3 *987:A2 2.14856e-06
37 *984:A3 *50:14 2.08098e-06
38 *984:A3 *231:10 0.000139021
39 *984:A3 *489:48 4.3369e-05
40 *1005:A3 *925:A2 8.98274e-07
41 *1005:A3 *1005:A2 2.75346e-06
42 *1005:A3 *48:10 7.19036e-06
43 *1005:A3 *511:12 6.46429e-06
44 *1012:A3 *684:A1 0
45 *1012:A3 *957:A2 6.14694e-05
46 *1012:A3 *1007:A1 8.05018e-05
47 *1012:A3 *1012:A1 2.80851e-05
48 *1012:A3 *1247:A 1.50966e-05
49 *1012:A3 *47:23 0
50 *1012:A3 *48:10 1.2203e-05
51 *1012:A3 *291:14 9.77674e-06
52 *1012:A3 *327:59 5.11191e-06
53 *1012:A3 *512:12 0
54 *1073:A2 *262:8 0
55 *1073:A2 *619:114 3.35099e-05
56 *1317:A3 *798:A2 2.33248e-06
57 *1317:A3 *806:A2 1.07952e-05
58 *1317:A3 *810:A1 1.75438e-05
59 *1317:A3 *1131:A1 7.21179e-06
60 *1317:A3 *84:23 8.81432e-05
61 *1317:A3 *306:18 1.39157e-06
62 *1317:A3 *309:49 0.0003479
63 *1317:A3 *554:222 0
64 *1317:A3 *571:26 0.000115472
65 *1317:A3 *615:60 9.2724e-06
66 *4:8 *1139:CK 0
67 *4:8 *554:6 1.26075e-05
68 *4:35 *984:A1 6.99805e-06
69 *4:35 *988:A1 1.29234e-05
70 *4:35 *989:B2 0.000180885
71 *4:35 *1001:A1 6.66548e-05
72 *4:35 *1090:B1 1.15749e-06
73 *4:35 *1092:A 0.000105832
74 *4:35 *1145:D 6.84316e-05
75 *4:35 *229:14 2.94435e-05
76 *4:35 *312:16 1.55606e-05
77 *4:35 *312:27 1.30415e-05
78 *4:35 *577:14 2.14642e-05
79 *4:35 *618:103 2.31454e-05
80 *4:46 *984:A1 1.21774e-06
81 *4:46 *991:A2 1.15782e-06
82 *4:46 *993:A1 2.39679e-06
83 *4:46 *1270:A 1.96273e-06
84 *4:46 *249:12 3.02351e-05
85 *4:46 *312:65 1.76908e-05
86 *4:46 *327:33 0.000158316
87 *4:46 *494:29 4.6613e-07
88 *4:46 *577:14 1.65208e-05
89 *4:50 *900:A 4.32144e-07
90 *4:50 *998:A2 1.67775e-05
91 *4:60 *882:A2 0
92 *4:60 *900:A 2.16072e-07
93 *4:60 *913:A 3.65322e-06
94 *4:60 *988:A2 7.87454e-06
95 *4:60 *998:A2 2.39679e-06
96 *4:60 *250:8 0
97 *4:60 *327:18 2.24822e-06
98 *4:60 *619:8 1.88334e-06
99 *4:60 *619:80 0
100 *4:60 *619:114 1.65458e-05
101 *4:64 *882:A1 4.79358e-06
102 *4:64 *1283:A 1.56498e-05
103 *4:64 *492:14 2.56699e-06
104 *4:64 *619:80 0
105 *4:78 *820:A1 0
106 *4:78 *862:A2 4.9678e-06
107 *4:78 *882:A1 2.39679e-06
108 *4:78 *882:A2 1.18232e-06
109 *4:78 *884:A 7.36271e-06
110 *4:78 *894:B2 3.33602e-06
111 *4:78 *963:A1 3.22834e-06
112 *4:78 *985:A3 2.01301e-05
113 *4:78 *1283:A 4.9678e-06
114 *4:78 *1317:A2 2.16072e-07
115 *4:78 *170:25 0
116 *4:78 *232:14 1.38574e-05
117 *4:78 *309:49 1.79463e-06
118 *4:78 *489:60 2.68684e-06
119 *4:78 *492:14 9.07774e-06
120 *4:78 *666:12 7.34806e-05
121 *4:131 *684:A1 0
122 *4:131 *684:A2 2.91576e-05
123 *4:131 *902:A2 2.52514e-05
124 *4:131 *937:A 2.97137e-05
125 *4:131 *48:10 9.15042e-05
126 *4:131 *48:16 9.38771e-05
127 *4:131 *249:12 8.14241e-05
128 *4:131 *312:65 1.18248e-05
129 *4:131 *327:18 2.41772e-05
130 *4:131 *327:33 2.4406e-05
131 *1139:D *704:A3 0
*RES
1 *1139:QN *4:8 7.17857 
2 *4:8 *704:A3 42.3572 
3 *4:8 *4:35 45.75 
4 *4:35 *991:A3 5 
5 *4:35 *4:46 16.5 
6 *4:46 *4:50 6.75 
7 *4:50 *4:60 19.3929 
8 *4:60 *4:64 9.25 
9 *4:64 *4:78 32.1429 
10 *4:78 *1317:A3 41.4671 
11 *4:78 *963:A3 11.8929 
12 *4:64 *984:A3 27.5357 
13 *4:60 *1073:A2 15 
14 *4:50 *998:A3 5 
15 *4:46 *4:131 28.0714 
16 *4:131 *1005:A3 11.75 
17 *4:131 *1012:A3 19.8929 
*END

*D_NET *5 0.000171709
*CONN
*I *1142:D I *D DFF_X1